output/2_TAP2_1/Cargas_BT_SA02_2_TAP2_1.dss
New "Load.BT_1284_M1" bus1="UC14865.2.3.4" phases=2 conn=delta model=2 kv=0.38 kw = 380.80523873024157 pf=0.92 status=variable vmaxpu=1.5 vminpu=0.93 daily="RES_2_SA" 
New "Load.BT_1284_M2" bus1="UC14865.2.3.4" phases=2 conn=delta model=3 kv=0.38 kw = 380.80523873024157 pf=0.92 status=variable vmaxpu=1.5 vminpu=0.93 daily="RES_2_SA"
 
New "Load.BT_7585_M1" bus1="UC15172.1.4" phases=1 conn=delta model=2 kv=0.22 kw = 245.5659950690343 pf=0.92 status=variable vmaxpu=1.5 vminpu=0.93 daily="RES_2_SA" 
New "Load.BT_7585_M2" bus1="UC15172.1.4" phases=1 conn=delta model=3 kv=0.22 kw = 245.5659950690343 pf=0.92 status=variable vmaxpu=1.5 vminpu=0.93 daily="RES_2_SA"
 
New "Load.BT_1321_M1" bus1="UC15176.1.2.3.4" phases=3 conn=delta model=2 kv=0.38 kw = 0.0 pf=0.92 status=variable vmaxpu=1.5 vminpu=0.93 daily="COM_13_SA" 
New "Load.BT_1321_M2" bus1="UC15176.1.2.3.4" phases=3 conn=delta model=3 kv=0.38 kw = 0.0 pf=0.92 status=variable vmaxpu=1.5 vminpu=0.93 daily="COM_13_SA"
 
New "Load.BT_1284_M1" bus1="UC14865.3.1.4" phases=2 conn=delta model=2 kv=0.38 kw = 316.7445443644066 pf=0.92 status=variable vmaxpu=1.5 vminpu=0.93 daily="RES_2_SA" 
New "Load.BT_1284_M2" bus1="UC14865.3.1.4" phases=2 conn=delta model=3 kv=0.38 kw = 316.7445443644066 pf=0.92 status=variable vmaxpu=1.5 vminpu=0.93 daily="RES_2_SA"
 
New "Load.BT_7553_M1" bus1="UC20061.1.2.3.4" phases=3 conn=delta model=2 kv=0.38 kw = 0.0 pf=0.92 status=variable vmaxpu=1.5 vminpu=0.93 daily="RES_7_SA" 
New "Load.BT_7553_M2" bus1="UC20061.1.2.3.4" phases=3 conn=delta model=3 kv=0.38 kw = 0.0 pf=0.92 status=variable vmaxpu=1.5 vminpu=0.93 daily="RES_7_SA"
 
New "Load.BT_2523_M1" bus1="UC20136.3.4" phases=1 conn=delta model=2 kv=0.22 kw = 0.0 pf=0.92 status=variable vmaxpu=1.5 vminpu=0.93 daily="RES_3_SA" 
New "Load.BT_2523_M2" bus1="UC20136.3.4" phases=1 conn=delta model=3 kv=0.22 kw = 0.0 pf=0.92 status=variable vmaxpu=1.5 vminpu=0.93 daily="RES_3_SA"
 
New "Load.BT_1656_M1" bus1="UC1545.1.4" phases=1 conn=delta model=2 kv=0.22 kw = 0.0 pf=0.92 status=variable vmaxpu=1.5 vminpu=0.93 daily="RES_3_SA" 
New "Load.BT_1656_M2" bus1="UC1545.1.4" phases=1 conn=delta model=3 kv=0.22 kw = 0.0 pf=0.92 status=variable vmaxpu=1.5 vminpu=0.93 daily="RES_3_SA"
 
New "Load.BT_446_M1" bus1="UC16148.1.2.3.4" phases=3 conn=delta model=2 kv=0.38 kw = 0.0 pf=0.92 status=variable vmaxpu=1.5 vminpu=0.93 daily="RES_3_SA" 
New "Load.BT_446_M2" bus1="UC16148.1.2.3.4" phases=3 conn=delta model=3 kv=0.38 kw = 0.0 pf=0.92 status=variable vmaxpu=1.5 vminpu=0.93 daily="RES_3_SA"
 
New "Load.BT_7293_M1" bus1="UC20138.2.3.4" phases=2 conn=delta model=2 kv=0.38 kw = 0.0 pf=0.92 status=variable vmaxpu=1.5 vminpu=0.93 daily="RES_7_SA" 
New "Load.BT_7293_M2" bus1="UC20138.2.3.4" phases=2 conn=delta model=3 kv=0.38 kw = 0.0 pf=0.92 status=variable vmaxpu=1.5 vminpu=0.93 daily="RES_7_SA"
 
New "Load.BT_1288_M1" bus1="UC8495.1.4" phases=1 conn=delta model=2 kv=0.22 kw = 0.0 pf=0.92 status=variable vmaxpu=1.5 vminpu=0.93 daily="RES_7_SA" 
New "Load.BT_1288_M2" bus1="UC8495.1.4" phases=1 conn=delta model=3 kv=0.22 kw = 0.0 pf=0.92 status=variable vmaxpu=1.5 vminpu=0.93 daily="RES_7_SA"
 
New "Load.BT_2743_M1" bus1="UC6417.2.4" phases=1 conn=delta model=2 kv=0.22 kw = 0.0 pf=0.92 status=variable vmaxpu=1.5 vminpu=0.93 daily="RES_3_SA" 
New "Load.BT_2743_M2" bus1="UC6417.2.4" phases=1 conn=delta model=3 kv=0.22 kw = 0.0 pf=0.92 status=variable vmaxpu=1.5 vminpu=0.93 daily="RES_3_SA"
 
New "Load.BT_7794_M1" bus1="UC16133.1.4" phases=1 conn=delta model=2 kv=0.22 kw = 0.0 pf=0.92 status=variable vmaxpu=1.5 vminpu=0.93 daily="RES_7_SA" 
New "Load.BT_7794_M2" bus1="UC16133.1.4" phases=1 conn=delta model=3 kv=0.22 kw = 0.0 pf=0.92 status=variable vmaxpu=1.5 vminpu=0.93 daily="RES_7_SA"
 
New "Load.BT_660_M1" bus1="UC15632.3.4" phases=1 conn=delta model=2 kv=0.22 kw = 0.0 pf=0.92 status=variable vmaxpu=1.5 vminpu=0.93 daily="RES_3_SA" 
New "Load.BT_660_M2" bus1="UC15632.3.4" phases=1 conn=delta model=3 kv=0.22 kw = 0.0 pf=0.92 status=variable vmaxpu=1.5 vminpu=0.93 daily="RES_3_SA"
 
New "Load.BT_8598_M1" bus1="UC16137.1.2.3.4" phases=3 conn=delta model=2 kv=0.38 kw = 0.0 pf=0.92 status=variable vmaxpu=1.5 vminpu=0.93 daily="RES_3_SA" 
New "Load.BT_8598_M2" bus1="UC16137.1.2.3.4" phases=3 conn=delta model=3 kv=0.38 kw = 0.0 pf=0.92 status=variable vmaxpu=1.5 vminpu=0.93 daily="RES_3_SA"
 
New "Load.BT_8649_M1" bus1="UC16131.1.2.3.4" phases=3 conn=delta model=2 kv=0.38 kw = 0.0 pf=0.92 status=variable vmaxpu=1.5 vminpu=0.93 daily="RES_3_SA" 
New "Load.BT_8649_M2" bus1="UC16131.1.2.3.4" phases=3 conn=delta model=3 kv=0.38 kw = 0.0 pf=0.92 status=variable vmaxpu=1.5 vminpu=0.93 daily="RES_3_SA"
 
New "Load.BT_8569_M1" bus1="UC20135.1.2.4" phases=2 conn=delta model=2 kv=0.38 kw = 0.0 pf=0.92 status=variable vmaxpu=1.5 vminpu=0.93 daily="RES_3_SA" 
New "Load.BT_8569_M2" bus1="UC20135.1.2.4" phases=2 conn=delta model=3 kv=0.38 kw = 0.0 pf=0.92 status=variable vmaxpu=1.5 vminpu=0.93 daily="RES_3_SA"
 
New "Load.BT_856_M1" bus1="UC1889.3.4" phases=1 conn=delta model=2 kv=0.22 kw = 0.0 pf=0.92 status=variable vmaxpu=1.5 vminpu=0.93 daily="RES_7_SA" 
New "Load.BT_856_M2" bus1="UC1889.3.4" phases=1 conn=delta model=3 kv=0.22 kw = 0.0 pf=0.92 status=variable vmaxpu=1.5 vminpu=0.93 daily="RES_7_SA"
 
New "Load.BT_2601_M1" bus1="UC15849.2.4" phases=1 conn=delta model=2 kv=0.22 kw = 31.386363356467953 pf=0.92 status=variable vmaxpu=1.5 vminpu=0.93 daily="RES_5_SA" 
New "Load.BT_2601_M2" bus1="UC15849.2.4" phases=1 conn=delta model=3 kv=0.22 kw = 31.386363356467953 pf=0.92 status=variable vmaxpu=1.5 vminpu=0.93 daily="RES_5_SA"
 
New "Load.BT_7733_M1" bus1="UC20092.2.3.4" phases=2 conn=delta model=2 kv=0.38 kw = 337.5122046440252 pf=0.92 status=variable vmaxpu=1.5 vminpu=0.93 daily="RES_3_SA" 
New "Load.BT_7733_M2" bus1="UC20092.2.3.4" phases=2 conn=delta model=3 kv=0.38 kw = 337.5122046440252 pf=0.92 status=variable vmaxpu=1.5 vminpu=0.93 daily="RES_3_SA"
 
New "Load.BT_7733_M1" bus1="UC20093.3.1.4" phases=2 conn=delta model=2 kv=0.38 kw = 0.0 pf=0.92 status=variable vmaxpu=1.5 vminpu=0.93 daily="RES_7_SA" 
New "Load.BT_7733_M2" bus1="UC20093.3.1.4" phases=2 conn=delta model=3 kv=0.38 kw = 0.0 pf=0.92 status=variable vmaxpu=1.5 vminpu=0.93 daily="RES_7_SA"
 
New "Load.BT_7734_M1" bus1="UC20094.2.3.4" phases=2 conn=delta model=2 kv=0.38 kw = 0.0 pf=0.92 status=variable vmaxpu=1.5 vminpu=0.93 daily="RES_7_SA" 
New "Load.BT_7734_M2" bus1="UC20094.2.3.4" phases=2 conn=delta model=3 kv=0.38 kw = 0.0 pf=0.92 status=variable vmaxpu=1.5 vminpu=0.93 daily="RES_7_SA"
 
New "Load.BT_2245_M1" bus1="UC20095.1.2.4" phases=2 conn=delta model=2 kv=0.38 kw = 112.50406821467504 pf=0.92 status=variable vmaxpu=1.5 vminpu=0.93 daily="RES_3_SA" 
New "Load.BT_2245_M2" bus1="UC20095.1.2.4" phases=2 conn=delta model=3 kv=0.38 kw = 112.50406821467504 pf=0.92 status=variable vmaxpu=1.5 vminpu=0.93 daily="RES_3_SA"
 
New "Load.BT_1794_M1" bus1="UC15505.3.4" phases=1 conn=delta model=2 kv=0.22 kw = 128.12138873167007 pf=0.92 status=variable vmaxpu=1.5 vminpu=0.93 daily="RES_2_SA" 
New "Load.BT_1794_M2" bus1="UC15505.3.4" phases=1 conn=delta model=3 kv=0.22 kw = 128.12138873167007 pf=0.92 status=variable vmaxpu=1.5 vminpu=0.93 daily="RES_2_SA"
 
New "Load.BT_657_M1" bus1="UC14583.1.4" phases=1 conn=delta model=2 kv=0.22 kw = 395.04094858931603 pf=0.92 status=variable vmaxpu=1.5 vminpu=0.93 daily="RES_2_SA" 
New "Load.BT_657_M2" bus1="UC14583.1.4" phases=1 conn=delta model=3 kv=0.22 kw = 395.04094858931603 pf=0.92 status=variable vmaxpu=1.5 vminpu=0.93 daily="RES_2_SA"
 
New "Load.BT_1284_M1" bus1="UC13787.3.1.4" phases=2 conn=delta model=2 kv=0.38 kw = 330.980254223481 pf=0.92 status=variable vmaxpu=1.5 vminpu=0.93 daily="RES_2_SA" 
New "Load.BT_1284_M2" bus1="UC13787.3.1.4" phases=2 conn=delta model=3 kv=0.38 kw = 330.980254223481 pf=0.92 status=variable vmaxpu=1.5 vminpu=0.93 daily="RES_2_SA"
 
New "Load.BT_7306_M1" bus1="UC15143.3.4" phases=1 conn=delta model=2 kv=0.22 kw = 405.7177309836219 pf=0.92 status=variable vmaxpu=1.5 vminpu=0.93 daily="RES_2_SA" 
New "Load.BT_7306_M2" bus1="UC15143.3.4" phases=1 conn=delta model=3 kv=0.22 kw = 405.7177309836219 pf=0.92 status=variable vmaxpu=1.5 vminpu=0.93 daily="RES_2_SA"
 
New "Load.BT_7829_M1" bus1="UC15152.2.4" phases=1 conn=delta model=2 kv=0.22 kw = 569.428394362978 pf=0.92 status=variable vmaxpu=1.5 vminpu=0.93 daily="RES_2_SA" 
New "Load.BT_7829_M2" bus1="UC15152.2.4" phases=1 conn=delta model=3 kv=0.22 kw = 569.428394362978 pf=0.92 status=variable vmaxpu=1.5 vminpu=0.93 daily="RES_2_SA"
 
New "Load.BT_2405_M1" bus1="UC4970.2.3.4" phases=2 conn=delta model=2 kv=0.38 kw = 1375.9633197126673 pf=0.92 status=variable vmaxpu=1.5 vminpu=0.93 daily="RES_4_SA" 
New "Load.BT_2405_M2" bus1="UC4970.2.3.4" phases=2 conn=delta model=3 kv=0.38 kw = 1375.9633197126673 pf=0.92 status=variable vmaxpu=1.5 vminpu=0.93 daily="RES_4_SA"
 
New "Load.BT_2823_M1" bus1="UC4516.2.4" phases=1 conn=delta model=2 kv=0.22 kw = 213.53564788611675 pf=0.92 status=variable vmaxpu=1.5 vminpu=0.93 daily="RES_2_SA" 
New "Load.BT_2823_M2" bus1="UC4516.2.4" phases=1 conn=delta model=3 kv=0.22 kw = 213.53564788611675 pf=0.92 status=variable vmaxpu=1.5 vminpu=0.93 daily="RES_2_SA"
 
New "Load.BT_7463_M1" bus1="UC4971.2.3.4" phases=2 conn=delta model=2 kv=0.38 kw = 719.7267032210141 pf=0.92 status=variable vmaxpu=1.5 vminpu=0.93 daily="RES_1_SA" 
New "Load.BT_7463_M2" bus1="UC4971.2.3.4" phases=2 conn=delta model=3 kv=0.38 kw = 719.7267032210141 pf=0.92 status=variable vmaxpu=1.5 vminpu=0.93 daily="RES_1_SA"
 
New "Load.BT_2049_M1" bus1="UC4838.2.3.4" phases=2 conn=delta model=2 kv=0.38 kw = 541.7080708050188 pf=0.92 status=variable vmaxpu=1.5 vminpu=0.93 daily="RES_13_SA" 
New "Load.BT_2049_M2" bus1="UC4838.2.3.4" phases=2 conn=delta model=3 kv=0.38 kw = 541.7080708050188 pf=0.92 status=variable vmaxpu=1.5 vminpu=0.93 daily="RES_13_SA"
 
New "Load.BT_874_M1" bus1="UC13502.1.2.3.4" phases=3 conn=delta model=2 kv=0.38 kw = 4660.343479368367 pf=0.92 status=variable vmaxpu=1.5 vminpu=0.93 daily="RES_13_SA" 
New "Load.BT_874_M2" bus1="UC13502.1.2.3.4" phases=3 conn=delta model=3 kv=0.38 kw = 4660.343479368367 pf=0.92 status=variable vmaxpu=1.5 vminpu=0.93 daily="RES_13_SA"
 
New "Load.BT_893_M1" bus1="UC9729.1.2.3.4" phases=3 conn=delta model=2 kv=0.38 kw = 1602.0135774208354 pf=0.92 status=variable vmaxpu=1.5 vminpu=0.93 daily="COM_1_SA" 
New "Load.BT_893_M2" bus1="UC9729.1.2.3.4" phases=3 conn=delta model=3 kv=0.38 kw = 1602.0135774208354 pf=0.92 status=variable vmaxpu=1.5 vminpu=0.93 daily="COM_1_SA"
 
New "Load.BT_6901_M1" bus1="UC15134.3.4" phases=1 conn=delta model=2 kv=0.22 kw = 715.3444204184912 pf=0.92 status=variable vmaxpu=1.5 vminpu=0.93 daily="RES_2_SA" 
New "Load.BT_6901_M2" bus1="UC15134.3.4" phases=1 conn=delta model=3 kv=0.22 kw = 715.3444204184912 pf=0.92 status=variable vmaxpu=1.5 vminpu=0.93 daily="RES_2_SA"
 
New "Load.BT_2271_M1" bus1="UC3269.2.4" phases=1 conn=delta model=2 kv=0.22 kw = 64.06069436583503 pf=0.92 status=variable vmaxpu=1.5 vminpu=0.93 daily="RES_2_SA" 
New "Load.BT_2271_M2" bus1="UC3269.2.4" phases=1 conn=delta model=3 kv=0.22 kw = 64.06069436583503 pf=0.92 status=variable vmaxpu=1.5 vminpu=0.93 daily="RES_2_SA"
 
New "Load.BT_363_M1" bus1="UC8092.3.4" phases=1 conn=delta model=2 kv=0.22 kw = 768.4581987516035 pf=0.92 status=variable vmaxpu=1.5 vminpu=0.93 daily="RES_1_SA" 
New "Load.BT_363_M2" bus1="UC8092.3.4" phases=1 conn=delta model=3 kv=0.22 kw = 768.4581987516035 pf=0.92 status=variable vmaxpu=1.5 vminpu=0.93 daily="RES_1_SA"
 
New "Load.BT_1388_M1" bus1="UC16119.1.2.3.4" phases=3 conn=delta model=2 kv=0.38 kw = 0.0 pf=0.92 status=variable vmaxpu=1.5 vminpu=0.93 daily="RES_3_SA" 
New "Load.BT_1388_M2" bus1="UC16119.1.2.3.4" phases=3 conn=delta model=3 kv=0.38 kw = 0.0 pf=0.92 status=variable vmaxpu=1.5 vminpu=0.93 daily="RES_3_SA"
 
New "Load.BT_7601_M1" bus1="UC14406.1.4" phases=1 conn=delta model=2 kv=0.22 kw = 0.0 pf=0.92 status=variable vmaxpu=1.5 vminpu=0.93 daily="RES_3_SA" 
New "Load.BT_7601_M2" bus1="UC14406.1.4" phases=1 conn=delta model=3 kv=0.22 kw = 0.0 pf=0.92 status=variable vmaxpu=1.5 vminpu=0.93 daily="RES_3_SA"
 
New "Load.BT_984_M1" bus1="UC3585.1.2.3.4" phases=3 conn=delta model=2 kv=0.38 kw = 0.0 pf=0.92 status=variable vmaxpu=1.5 vminpu=0.93 daily="RES_3_SA" 
New "Load.BT_984_M2" bus1="UC3585.1.2.3.4" phases=3 conn=delta model=3 kv=0.38 kw = 0.0 pf=0.92 status=variable vmaxpu=1.5 vminpu=0.93 daily="RES_3_SA"
 
New "Load.BT_6510_M1" bus1="UC16127.1.4" phases=1 conn=delta model=2 kv=0.22 kw = 0.0 pf=0.92 status=variable vmaxpu=1.5 vminpu=0.93 daily="RES_7_SA" 
New "Load.BT_6510_M2" bus1="UC16127.1.4" phases=1 conn=delta model=3 kv=0.22 kw = 0.0 pf=0.92 status=variable vmaxpu=1.5 vminpu=0.93 daily="RES_7_SA"
 
New "Load.BT_2175_M1" bus1="UC20134.1.2.3.4" phases=3 conn=delta model=2 kv=0.38 kw = 0.0 pf=0.92 status=variable vmaxpu=1.5 vminpu=0.93 daily="RES_7_SA" 
New "Load.BT_2175_M2" bus1="UC20134.1.2.3.4" phases=3 conn=delta model=3 kv=0.38 kw = 0.0 pf=0.92 status=variable vmaxpu=1.5 vminpu=0.93 daily="RES_7_SA"
 
New "Load.BT_6508_M1" bus1="UC15833.1.2.4" phases=2 conn=delta model=2 kv=0.38 kw = 26.240036054932805 pf=0.92 status=variable vmaxpu=1.5 vminpu=0.93 daily="RES_1_SA" 
New "Load.BT_6508_M2" bus1="UC15833.1.2.4" phases=2 conn=delta model=3 kv=0.38 kw = 26.240036054932805 pf=0.92 status=variable vmaxpu=1.5 vminpu=0.93 daily="RES_1_SA"
 
New "Load.BT_2830_M1" bus1="UC3356.1.4" phases=1 conn=delta model=2 kv=0.22 kw = 395.04094858931603 pf=0.92 status=variable vmaxpu=1.5 vminpu=0.93 daily="RES_2_SA" 
New "Load.BT_2830_M2" bus1="UC3356.1.4" phases=1 conn=delta model=3 kv=0.22 kw = 395.04094858931603 pf=0.92 status=variable vmaxpu=1.5 vminpu=0.93 daily="RES_2_SA"
 
New "Load.BT_2830_M1" bus1="UC3356.2.4" phases=1 conn=delta model=2 kv=0.22 kw = 418.173980452519 pf=0.92 status=variable vmaxpu=1.5 vminpu=0.93 daily="RES_12_SA" 
New "Load.BT_2830_M2" bus1="UC3356.2.4" phases=1 conn=delta model=3 kv=0.22 kw = 418.173980452519 pf=0.92 status=variable vmaxpu=1.5 vminpu=0.93 daily="RES_12_SA"
 
New "Load.BT_7605_M1" bus1="UC11738.3.4" phases=1 conn=delta model=2 kv=0.22 kw = 373.1489865713412 pf=0.92 status=variable vmaxpu=1.5 vminpu=0.93 daily="RES_5_SA" 
New "Load.BT_7605_M2" bus1="UC11738.3.4" phases=1 conn=delta model=3 kv=0.22 kw = 373.1489865713412 pf=0.92 status=variable vmaxpu=1.5 vminpu=0.93 daily="RES_5_SA"
 
New "Load.BT_7725_M1" bus1="UC20089.3.4" phases=1 conn=delta model=2 kv=0.22 kw = 17.794637323843062 pf=0.92 status=variable vmaxpu=1.5 vminpu=0.93 daily="RES_2_SA" 
New "Load.BT_7725_M2" bus1="UC20089.3.4" phases=1 conn=delta model=3 kv=0.22 kw = 17.794637323843062 pf=0.92 status=variable vmaxpu=1.5 vminpu=0.93 daily="RES_2_SA"
 
New "Load.BT_2519_M1" bus1="UC15842.2.4" phases=1 conn=delta model=2 kv=0.22 kw = 196.88211937568133 pf=0.92 status=variable vmaxpu=1.5 vminpu=0.93 daily="RES_3_SA" 
New "Load.BT_2519_M2" bus1="UC15842.2.4" phases=1 conn=delta model=3 kv=0.22 kw = 196.88211937568133 pf=0.92 status=variable vmaxpu=1.5 vminpu=0.93 daily="RES_3_SA"
 
New "Load.BT_6668_M1" bus1="UC15843.2.3.4" phases=2 conn=delta model=2 kv=0.38 kw = 37.48576579276115 pf=0.92 status=variable vmaxpu=1.5 vminpu=0.93 daily="RES_1_SA" 
New "Load.BT_6668_M2" bus1="UC15843.2.3.4" phases=2 conn=delta model=3 kv=0.38 kw = 37.48576579276115 pf=0.92 status=variable vmaxpu=1.5 vminpu=0.93 daily="RES_1_SA"
 
New "Load.BT_7732_M1" bus1="UC20090.2.3.4" phases=2 conn=delta model=2 kv=0.38 kw = 60.129591960492924 pf=0.92 status=variable vmaxpu=1.5 vminpu=0.93 daily="RES_12_SA" 
New "Load.BT_7732_M2" bus1="UC20090.2.3.4" phases=2 conn=delta model=3 kv=0.38 kw = 60.129591960492924 pf=0.92 status=variable vmaxpu=1.5 vminpu=0.93 daily="RES_12_SA"
 
New "Load.BT_7733_M1" bus1="UC20091.2.3.4" phases=2 conn=delta model=2 kv=0.38 kw = 317.35100727095374 pf=0.92 status=variable vmaxpu=1.5 vminpu=0.93 daily="RES_5_SA" 
New "Load.BT_7733_M2" bus1="UC20091.2.3.4" phases=2 conn=delta model=3 kv=0.38 kw = 317.35100727095374 pf=0.92 status=variable vmaxpu=1.5 vminpu=0.93 daily="RES_5_SA"
 
New "Load.BT_2860_M1" bus1="UC2244.1.4" phases=1 conn=delta model=2 kv=0.22 kw = 942.8201537675135 pf=0.92 status=variable vmaxpu=1.5 vminpu=0.93 daily="RES_13_SA" 
New "Load.BT_2860_M2" bus1="UC2244.1.4" phases=1 conn=delta model=3 kv=0.22 kw = 942.8201537675135 pf=0.92 status=variable vmaxpu=1.5 vminpu=0.93 daily="RES_13_SA"
 
New "Load.BT_893_M1" bus1="UC9729.3.4" phases=1 conn=delta model=2 kv=0.22 kw = 353.8298578321268 pf=0.92 status=variable vmaxpu=1.5 vminpu=0.93 daily="COM_1_SA" 
New "Load.BT_893_M2" bus1="UC9729.3.4" phases=1 conn=delta model=3 kv=0.22 kw = 353.8298578321268 pf=0.92 status=variable vmaxpu=1.5 vminpu=0.93 daily="COM_1_SA"
 
New "Load.BT_893_M1" bus1="UC9729.2.4" phases=1 conn=delta model=2 kv=0.22 kw = 173.87096718355266 pf=0.92 status=variable vmaxpu=1.5 vminpu=0.93 daily="RES_10_SA" 
New "Load.BT_893_M2" bus1="UC9729.2.4" phases=1 conn=delta model=3 kv=0.22 kw = 173.87096718355266 pf=0.92 status=variable vmaxpu=1.5 vminpu=0.93 daily="RES_10_SA"
 
New "Load.BT_1939_M1" bus1="UC20043.2.3.4" phases=2 conn=delta model=2 kv=0.38 kw = 28.471419718148905 pf=0.92 status=variable vmaxpu=1.5 vminpu=0.93 daily="RES_2_SA" 
New "Load.BT_1939_M2" bus1="UC20043.2.3.4" phases=2 conn=delta model=3 kv=0.38 kw = 28.471419718148905 pf=0.92 status=variable vmaxpu=1.5 vminpu=0.93 daily="RES_2_SA"
 
New "Load.BT_8375_M1" bus1="UC4987.1.2.4" phases=2 conn=delta model=2 kv=0.38 kw = 142.3570985907445 pf=0.92 status=variable vmaxpu=1.5 vminpu=0.93 daily="RES_2_SA" 
New "Load.BT_8375_M2" bus1="UC4987.1.2.4" phases=2 conn=delta model=3 kv=0.38 kw = 142.3570985907445 pf=0.92 status=variable vmaxpu=1.5 vminpu=0.93 daily="RES_2_SA"
 
New "Load.BT_7746_M1" bus1="UC2758.3.4" phases=1 conn=delta model=2 kv=0.22 kw = 980.8491115782842 pf=0.92 status=variable vmaxpu=1.5 vminpu=0.93 daily="RES_7_SA" 
New "Load.BT_7746_M2" bus1="UC2758.3.4" phases=1 conn=delta model=3 kv=0.22 kw = 980.8491115782842 pf=0.92 status=variable vmaxpu=1.5 vminpu=0.93 daily="RES_7_SA"
 
New "Load.BT_830_M1" bus1="UC2488.1.4" phases=1 conn=delta model=2 kv=0.22 kw = 391.48202112454743 pf=0.92 status=variable vmaxpu=1.5 vminpu=0.93 daily="RES_2_SA" 
New "Load.BT_830_M2" bus1="UC2488.1.4" phases=1 conn=delta model=3 kv=0.22 kw = 391.48202112454743 pf=0.92 status=variable vmaxpu=1.5 vminpu=0.93 daily="RES_2_SA"
 
New "Load.BT_830_M1" bus1="UC2488.2.4" phases=1 conn=delta model=2 kv=0.22 kw = 206.41779295657958 pf=0.92 status=variable vmaxpu=1.5 vminpu=0.93 daily="RES_2_SA" 
New "Load.BT_830_M2" bus1="UC2488.2.4" phases=1 conn=delta model=3 kv=0.22 kw = 206.41779295657958 pf=0.92 status=variable vmaxpu=1.5 vminpu=0.93 daily="RES_2_SA"
 
New "Load.BT_830_M1" bus1="UC2488.3.4" phases=1 conn=delta model=2 kv=0.22 kw = 270.4784873224146 pf=0.92 status=variable vmaxpu=1.5 vminpu=0.93 daily="RES_2_SA" 
New "Load.BT_830_M2" bus1="UC2488.3.4" phases=1 conn=delta model=3 kv=0.22 kw = 270.4784873224146 pf=0.92 status=variable vmaxpu=1.5 vminpu=0.93 daily="RES_2_SA"
 
New "Load.BT_1284_M1" bus1="UC14865.2.3.4" phases=2 conn=delta model=2 kv=0.38 kw = 311.02073558063955 pf=0.92 status=variable vmaxpu=1.5 vminpu=0.93 daily="RES_11_SA" 
New "Load.BT_1284_M2" bus1="UC14865.2.3.4" phases=2 conn=delta model=3 kv=0.38 kw = 311.02073558063955 pf=0.92 status=variable vmaxpu=1.5 vminpu=0.93 daily="RES_11_SA"
 
New "Load.BT_7814_M1" bus1="UC15091.1.4" phases=1 conn=delta model=2 kv=0.22 kw = 227.77135774519124 pf=0.92 status=variable vmaxpu=1.5 vminpu=0.93 daily="RES_2_SA" 
New "Load.BT_7814_M2" bus1="UC15091.1.4" phases=1 conn=delta model=3 kv=0.22 kw = 227.77135774519124 pf=0.92 status=variable vmaxpu=1.5 vminpu=0.93 daily="RES_2_SA"
 
New "Load.BT_6653_M1" bus1="UC11683.2.4" phases=1 conn=delta model=2 kv=0.22 kw = 231.33028520995984 pf=0.92 status=variable vmaxpu=1.5 vminpu=0.93 daily="RES_2_SA" 
New "Load.BT_6653_M2" bus1="UC11683.2.4" phases=1 conn=delta model=3 kv=0.22 kw = 231.33028520995984 pf=0.92 status=variable vmaxpu=1.5 vminpu=0.93 daily="RES_2_SA"
 
New "Load.BT_6786_M1" bus1="UC9221.1.4" phases=1 conn=delta model=2 kv=0.22 kw = 419.9534408426963 pf=0.92 status=variable vmaxpu=1.5 vminpu=0.93 daily="RES_2_SA" 
New "Load.BT_6786_M2" bus1="UC9221.1.4" phases=1 conn=delta model=3 kv=0.22 kw = 419.9534408426963 pf=0.92 status=variable vmaxpu=1.5 vminpu=0.93 daily="RES_2_SA"
 
New "Load.BT_7897_M1" bus1="UC3241.3.4" phases=1 conn=delta model=2 kv=0.22 kw = 288.04239682816353 pf=0.92 status=variable vmaxpu=1.5 vminpu=0.93 daily="COM_1_SA" 
New "Load.BT_7897_M2" bus1="UC3241.3.4" phases=1 conn=delta model=3 kv=0.22 kw = 288.04239682816353 pf=0.92 status=variable vmaxpu=1.5 vminpu=0.93 daily="COM_1_SA"
 
New "Load.BT_6905_M1" bus1="UC15112.3.4" phases=1 conn=delta model=2 kv=0.22 kw = 536.0464508364844 pf=0.92 status=variable vmaxpu=1.5 vminpu=0.93 daily="RES_1_SA" 
New "Load.BT_6905_M2" bus1="UC15112.3.4" phases=1 conn=delta model=3 kv=0.22 kw = 536.0464508364844 pf=0.92 status=variable vmaxpu=1.5 vminpu=0.93 daily="RES_1_SA"
 
New "Load.BT_7836_M1" bus1="UC16108.3.4" phases=1 conn=delta model=2 kv=0.22 kw = 0.0 pf=0.92 status=variable vmaxpu=1.5 vminpu=0.93 daily="RES_7_SA" 
New "Load.BT_7836_M2" bus1="UC16108.3.4" phases=1 conn=delta model=3 kv=0.22 kw = 0.0 pf=0.92 status=variable vmaxpu=1.5 vminpu=0.93 daily="RES_7_SA"
 
New "Load.BT_2994_M1" bus1="UC20129.3.4" phases=1 conn=delta model=2 kv=0.22 kw = 0.0 pf=0.92 status=variable vmaxpu=1.5 vminpu=0.93 daily="RES_7_SA" 
New "Load.BT_2994_M2" bus1="UC20129.3.4" phases=1 conn=delta model=3 kv=0.22 kw = 0.0 pf=0.92 status=variable vmaxpu=1.5 vminpu=0.93 daily="RES_7_SA"
 
New "Load.BT_2600_M1" bus1="UC16111.2.4" phases=1 conn=delta model=2 kv=0.22 kw = 0.0 pf=0.92 status=variable vmaxpu=1.5 vminpu=0.93 daily="RES_7_SA" 
New "Load.BT_2600_M2" bus1="UC16111.2.4" phases=1 conn=delta model=3 kv=0.22 kw = 0.0 pf=0.92 status=variable vmaxpu=1.5 vminpu=0.93 daily="RES_7_SA"
 
New "Load.BT_8384_M1" bus1="UC3883.1.4" phases=1 conn=delta model=2 kv=0.22 kw = 0.0 pf=0.92 status=variable vmaxpu=1.5 vminpu=0.93 daily="COM_5_SA" 
New "Load.BT_8384_M2" bus1="UC3883.1.4" phases=1 conn=delta model=3 kv=0.22 kw = 0.0 pf=0.92 status=variable vmaxpu=1.5 vminpu=0.93 daily="COM_5_SA"
 
New "Load.BT_8384_M1" bus1="UC3883.2.4" phases=1 conn=delta model=2 kv=0.22 kw = 0.0 pf=0.92 status=variable vmaxpu=1.5 vminpu=0.93 daily="COM_5_SA" 
New "Load.BT_8384_M2" bus1="UC3883.2.4" phases=1 conn=delta model=3 kv=0.22 kw = 0.0 pf=0.92 status=variable vmaxpu=1.5 vminpu=0.93 daily="COM_5_SA"
 
New "Load.BT_2055_M1" bus1="UC4114.1.4" phases=1 conn=delta model=2 kv=0.22 kw = 0.0 pf=0.92 status=variable vmaxpu=1.5 vminpu=0.93 daily="RES_7_SA" 
New "Load.BT_2055_M2" bus1="UC4114.1.4" phases=1 conn=delta model=3 kv=0.22 kw = 0.0 pf=0.92 status=variable vmaxpu=1.5 vminpu=0.93 daily="RES_7_SA"
 
New "Load.BT_1547_M1" bus1="UC14453.3.4" phases=1 conn=delta model=2 kv=0.22 kw = 0.0 pf=0.92 status=variable vmaxpu=1.5 vminpu=0.93 daily="RES_7_SA" 
New "Load.BT_1547_M2" bus1="UC14453.3.4" phases=1 conn=delta model=3 kv=0.22 kw = 0.0 pf=0.92 status=variable vmaxpu=1.5 vminpu=0.93 daily="RES_7_SA"
 
New "Load.BT_7858_M1" bus1="UC16118.2.4" phases=1 conn=delta model=2 kv=0.22 kw = 0.0 pf=0.92 status=variable vmaxpu=1.5 vminpu=0.93 daily="RES_7_SA" 
New "Load.BT_7858_M2" bus1="UC16118.2.4" phases=1 conn=delta model=3 kv=0.22 kw = 0.0 pf=0.92 status=variable vmaxpu=1.5 vminpu=0.93 daily="RES_7_SA"
 
New "Load.BT_2598_M1" bus1="UC15828.2.4" phases=1 conn=delta model=2 kv=0.22 kw = 24.912492253380293 pf=0.92 status=variable vmaxpu=1.5 vminpu=0.93 daily="RES_2_SA" 
New "Load.BT_2598_M2" bus1="UC15828.2.4" phases=1 conn=delta model=3 kv=0.22 kw = 24.912492253380293 pf=0.92 status=variable vmaxpu=1.5 vminpu=0.93 daily="RES_2_SA"
 
New "Load.BT_1076_M1" bus1="UC5746.1.4" phases=1 conn=delta model=2 kv=0.22 kw = 125.54545342587181 pf=0.92 status=variable vmaxpu=1.5 vminpu=0.93 daily="RES_5_SA" 
New "Load.BT_1076_M2" bus1="UC5746.1.4" phases=1 conn=delta model=3 kv=0.22 kw = 125.54545342587181 pf=0.92 status=variable vmaxpu=1.5 vminpu=0.93 daily="RES_5_SA"
 
New "Load.BT_1224_M1" bus1="UC797.2.4" phases=1 conn=delta model=2 kv=0.22 kw = 365.6382216976939 pf=0.92 status=variable vmaxpu=1.5 vminpu=0.93 daily="RES_3_SA" 
New "Load.BT_1224_M2" bus1="UC797.2.4" phases=1 conn=delta model=3 kv=0.22 kw = 365.6382216976939 pf=0.92 status=variable vmaxpu=1.5 vminpu=0.93 daily="RES_3_SA"
 
New "Load.BT_2144_M1" bus1="UC20086.1.4" phases=1 conn=delta model=2 kv=0.22 kw = 814.9943894320123 pf=0.92 status=variable vmaxpu=1.5 vminpu=0.93 daily="RES_2_SA" 
New "Load.BT_2144_M2" bus1="UC20086.1.4" phases=1 conn=delta model=3 kv=0.22 kw = 814.9943894320123 pf=0.92 status=variable vmaxpu=1.5 vminpu=0.93 daily="RES_2_SA"
 
New "Load.BT_618_M1" bus1="UC15794.3.1.4" phases=2 conn=delta model=2 kv=0.38 kw = 28.471419718148905 pf=0.92 status=variable vmaxpu=1.5 vminpu=0.93 daily="RES_2_SA" 
New "Load.BT_618_M2" bus1="UC15794.3.1.4" phases=2 conn=delta model=3 kv=0.38 kw = 28.471419718148905 pf=0.92 status=variable vmaxpu=1.5 vminpu=0.93 daily="RES_2_SA"
 
New "Load.BT_7606_M1" bus1="UC11739.3.4" phases=1 conn=delta model=2 kv=0.22 kw = 437.7480781665394 pf=0.92 status=variable vmaxpu=1.5 vminpu=0.93 daily="RES_2_SA" 
New "Load.BT_7606_M2" bus1="UC11739.3.4" phases=1 conn=delta model=3 kv=0.22 kw = 437.7480781665394 pf=0.92 status=variable vmaxpu=1.5 vminpu=0.93 daily="RES_2_SA"
 
New "Load.BT_6647_M1" bus1="UC9436.1.4" phases=1 conn=delta model=2 kv=0.22 kw = 441.307005631308 pf=0.92 status=variable vmaxpu=1.5 vminpu=0.93 daily="RES_2_SA" 
New "Load.BT_6647_M2" bus1="UC9436.1.4" phases=1 conn=delta model=3 kv=0.22 kw = 441.307005631308 pf=0.92 status=variable vmaxpu=1.5 vminpu=0.93 daily="RES_2_SA"
 
New "Load.BT_1485_M1" bus1="UC15792.1.2.3.4" phases=3 conn=delta model=2 kv=0.38 kw = 71.17854929537225 pf=0.92 status=variable vmaxpu=1.5 vminpu=0.93 daily="RES_2_SA" 
New "Load.BT_1485_M2" bus1="UC15792.1.2.3.4" phases=3 conn=delta model=3 kv=0.38 kw = 71.17854929537225 pf=0.92 status=variable vmaxpu=1.5 vminpu=0.93 daily="RES_2_SA"
 
New "Load.BT_6503_M1" bus1="UC15476.1.4" phases=1 conn=delta model=2 kv=0.22 kw = 1060.5603845010467 pf=0.92 status=variable vmaxpu=1.5 vminpu=0.93 daily="RES_2_SA" 
New "Load.BT_6503_M2" bus1="UC15476.1.4" phases=1 conn=delta model=3 kv=0.22 kw = 1060.5603845010467 pf=0.92 status=variable vmaxpu=1.5 vminpu=0.93 daily="RES_2_SA"
 
New "Load.BT_7350_M1" bus1="UC20128.1.4" phases=1 conn=delta model=2 kv=0.22 kw = 0.0 pf=0.92 status=variable vmaxpu=1.5 vminpu=0.93 daily="RES_3_SA" 
New "Load.BT_7350_M2" bus1="UC20128.1.4" phases=1 conn=delta model=3 kv=0.22 kw = 0.0 pf=0.92 status=variable vmaxpu=1.5 vminpu=0.93 daily="RES_3_SA"
 
New "Load.BT_7853_M1" bus1="UC16098.2.3.4" phases=2 conn=delta model=2 kv=0.38 kw = 0.0 pf=0.92 status=variable vmaxpu=1.5 vminpu=0.93 daily="RES_7_SA" 
New "Load.BT_7853_M2" bus1="UC16098.2.3.4" phases=2 conn=delta model=3 kv=0.38 kw = 0.0 pf=0.92 status=variable vmaxpu=1.5 vminpu=0.93 daily="RES_7_SA"
 
New "Load.BT_2823_M1" bus1="UC4516.3.1.4" phases=2 conn=delta model=2 kv=0.38 kw = 0.0 pf=0.92 status=variable vmaxpu=1.5 vminpu=0.93 daily="RES_3_SA" 
New "Load.BT_2823_M2" bus1="UC4516.3.1.4" phases=2 conn=delta model=3 kv=0.38 kw = 0.0 pf=0.92 status=variable vmaxpu=1.5 vminpu=0.93 daily="RES_3_SA"
 
New "Load.BT_1088_M1" bus1="UC5634.3.4" phases=1 conn=delta model=2 kv=0.22 kw = 0.0 pf=0.92 status=variable vmaxpu=1.5 vminpu=0.93 daily="RES_3_SA" 
New "Load.BT_1088_M2" bus1="UC5634.3.4" phases=1 conn=delta model=3 kv=0.22 kw = 0.0 pf=0.92 status=variable vmaxpu=1.5 vminpu=0.93 daily="RES_3_SA"
 
New "Load.BT_6907_M1" bus1="UC10830.1.4" phases=1 conn=delta model=2 kv=0.22 kw = 0.0 pf=0.92 status=variable vmaxpu=1.5 vminpu=0.93 daily="RES_7_SA" 
New "Load.BT_6907_M2" bus1="UC10830.1.4" phases=1 conn=delta model=3 kv=0.22 kw = 0.0 pf=0.92 status=variable vmaxpu=1.5 vminpu=0.93 daily="RES_7_SA"
 
New "Load.BT_2519_M1" bus1="UC15768.1.4" phases=1 conn=delta model=2 kv=0.22 kw = 0.0 pf=0.92 status=variable vmaxpu=1.5 vminpu=0.93 daily="RES_2_SA" 
New "Load.BT_2519_M2" bus1="UC15768.1.4" phases=1 conn=delta model=3 kv=0.22 kw = 0.0 pf=0.92 status=variable vmaxpu=1.5 vminpu=0.93 daily="RES_2_SA"
 
New "Load.BT_7950_M1" bus1="UC15770.1.2.4" phases=2 conn=delta model=2 kv=0.38 kw = 17.794637323843062 pf=0.92 status=variable vmaxpu=1.5 vminpu=0.93 daily="RES_2_SA" 
New "Load.BT_7950_M2" bus1="UC15770.1.2.4" phases=2 conn=delta model=3 kv=0.38 kw = 17.794637323843062 pf=0.92 status=variable vmaxpu=1.5 vminpu=0.93 daily="RES_2_SA"
 
New "Load.BT_7736_M1" bus1="UC20080.1.2.4" phases=2 conn=delta model=2 kv=0.38 kw = 238.44814013949707 pf=0.92 status=variable vmaxpu=1.5 vminpu=0.93 daily="RES_2_SA" 
New "Load.BT_7736_M2" bus1="UC20080.1.2.4" phases=2 conn=delta model=3 kv=0.38 kw = 238.44814013949707 pf=0.92 status=variable vmaxpu=1.5 vminpu=0.93 daily="RES_2_SA"
 
New "Load.BT_7736_M1" bus1="UC20078.2.3.4" phases=2 conn=delta model=2 kv=0.38 kw = 24.912492253380293 pf=0.92 status=variable vmaxpu=1.5 vminpu=0.93 daily="RES_2_SA" 
New "Load.BT_7736_M2" bus1="UC20078.2.3.4" phases=2 conn=delta model=3 kv=0.38 kw = 24.912492253380293 pf=0.92 status=variable vmaxpu=1.5 vminpu=0.93 daily="RES_2_SA"
 
New "Load.BT_7736_M1" bus1="UC20079.2.3.4" phases=2 conn=delta model=2 kv=0.38 kw = 195.74101056227371 pf=0.92 status=variable vmaxpu=1.5 vminpu=0.93 daily="RES_2_SA" 
New "Load.BT_7736_M2" bus1="UC20079.2.3.4" phases=2 conn=delta model=3 kv=0.38 kw = 195.74101056227371 pf=0.92 status=variable vmaxpu=1.5 vminpu=0.93 daily="RES_2_SA"
 
New "Load.BT_2553_M1" bus1="UC20081.3.4" phases=1 conn=delta model=2 kv=0.22 kw = 27.64784432467848 pf=0.92 status=variable vmaxpu=1.5 vminpu=0.93 daily="RES_6_SA" 
New "Load.BT_2553_M2" bus1="UC20081.3.4" phases=1 conn=delta model=3 kv=0.22 kw = 27.64784432467848 pf=0.92 status=variable vmaxpu=1.5 vminpu=0.93 daily="RES_6_SA"
 
New "Load.BT_1328_M1" bus1="UC960.3.4" phases=1 conn=delta model=2 kv=0.22 kw = 309.6266894348693 pf=0.92 status=variable vmaxpu=1.5 vminpu=0.93 daily="RES_2_SA" 
New "Load.BT_1328_M2" bus1="UC960.3.4" phases=1 conn=delta model=3 kv=0.22 kw = 309.6266894348693 pf=0.92 status=variable vmaxpu=1.5 vminpu=0.93 daily="RES_2_SA"
 
New "Load.BT_1280_M1" bus1="UC7780.1.4" phases=1 conn=delta model=2 kv=0.22 kw = 814.9943894320123 pf=0.92 status=variable vmaxpu=1.5 vminpu=0.93 daily="RES_2_SA" 
New "Load.BT_1280_M2" bus1="UC7780.1.4" phases=1 conn=delta model=3 kv=0.22 kw = 814.9943894320123 pf=0.92 status=variable vmaxpu=1.5 vminpu=0.93 daily="RES_2_SA"
 
New "Load.BT_7756_M1" bus1="UC15778.1.2.3.4" phases=3 conn=delta model=2 kv=0.38 kw = 14.235709859074452 pf=0.92 status=variable vmaxpu=1.5 vminpu=0.93 daily="RES_2_SA" 
New "Load.BT_7756_M2" bus1="UC15778.1.2.3.4" phases=3 conn=delta model=3 kv=0.38 kw = 14.235709859074452 pf=0.92 status=variable vmaxpu=1.5 vminpu=0.93 daily="RES_2_SA"
 
New "Load.BT_7345_M1" bus1="UC4494.3.4" phases=1 conn=delta model=2 kv=0.22 kw = 501.80877253237446 pf=0.92 status=variable vmaxpu=1.5 vminpu=0.93 daily="RES_2_SA" 
New "Load.BT_7345_M2" bus1="UC4494.3.4" phases=1 conn=delta model=3 kv=0.22 kw = 501.80877253237446 pf=0.92 status=variable vmaxpu=1.5 vminpu=0.93 daily="RES_2_SA"
 
New "Load.BT_6677_M1" bus1="UC15444.3.4" phases=1 conn=delta model=2 kv=0.22 kw = 3.558927464768613 pf=0.92 status=variable vmaxpu=1.5 vminpu=0.93 daily="RES_2_SA" 
New "Load.BT_6677_M2" bus1="UC15444.3.4" phases=1 conn=delta model=3 kv=0.22 kw = 3.558927464768613 pf=0.92 status=variable vmaxpu=1.5 vminpu=0.93 daily="RES_2_SA"
 
New "Load.BT_2035_M1" bus1="UC20026.1.4" phases=1 conn=delta model=2 kv=0.22 kw = 481.34161458908494 pf=0.92 status=variable vmaxpu=1.5 vminpu=0.93 daily="RES_11_SA" 
New "Load.BT_2035_M2" bus1="UC20026.1.4" phases=1 conn=delta model=3 kv=0.22 kw = 481.34161458908494 pf=0.92 status=variable vmaxpu=1.5 vminpu=0.93 daily="RES_11_SA"
 
New "Load.BT_1901_M1" bus1="UC20027.2.3.4" phases=2 conn=delta model=2 kv=0.38 kw = 583.6641042220525 pf=0.92 status=variable vmaxpu=1.5 vminpu=0.93 daily="RES_2_SA" 
New "Load.BT_1901_M2" bus1="UC20027.2.3.4" phases=2 conn=delta model=3 kv=0.38 kw = 583.6641042220525 pf=0.92 status=variable vmaxpu=1.5 vminpu=0.93 daily="RES_2_SA"
 
New "Load.BT_7814_M1" bus1="UC16067.3.4" phases=1 conn=delta model=2 kv=0.22 kw = 0.0 pf=0.92 status=variable vmaxpu=1.5 vminpu=0.93 daily="RES_7_SA" 
New "Load.BT_7814_M2" bus1="UC16067.3.4" phases=1 conn=delta model=3 kv=0.22 kw = 0.0 pf=0.92 status=variable vmaxpu=1.5 vminpu=0.93 daily="RES_7_SA"
 
New "Load.BT_1799_M1" bus1="UC6060.1.4" phases=1 conn=delta model=2 kv=0.22 kw = 0.0 pf=0.92 status=variable vmaxpu=1.5 vminpu=0.93 daily="RES_3_SA" 
New "Load.BT_1799_M2" bus1="UC6060.1.4" phases=1 conn=delta model=3 kv=0.22 kw = 0.0 pf=0.92 status=variable vmaxpu=1.5 vminpu=0.93 daily="RES_3_SA"
 
New "Load.BT_2049_M1" bus1="UC4838.1.2.4" phases=2 conn=delta model=2 kv=0.38 kw = 0.0 pf=0.92 status=variable vmaxpu=1.5 vminpu=0.93 daily="RES_3_SA" 
New "Load.BT_2049_M2" bus1="UC4838.1.2.4" phases=2 conn=delta model=3 kv=0.38 kw = 0.0 pf=0.92 status=variable vmaxpu=1.5 vminpu=0.93 daily="RES_3_SA"
 
New "Load.BT_6674_M1" bus1="UC14778.2.4" phases=1 conn=delta model=2 kv=0.22 kw = 0.0 pf=0.92 status=variable vmaxpu=1.5 vminpu=0.93 daily="RES_3_SA" 
New "Load.BT_6674_M2" bus1="UC14778.2.4" phases=1 conn=delta model=3 kv=0.22 kw = 0.0 pf=0.92 status=variable vmaxpu=1.5 vminpu=0.93 daily="RES_3_SA"
 
New "Load.BT_3082_M1" bus1="UC3698.2.4" phases=1 conn=delta model=2 kv=0.22 kw = 0.0 pf=0.92 status=variable vmaxpu=1.5 vminpu=0.93 daily="RES_3_SA" 
New "Load.BT_3082_M2" bus1="UC3698.2.4" phases=1 conn=delta model=3 kv=0.22 kw = 0.0 pf=0.92 status=variable vmaxpu=1.5 vminpu=0.93 daily="RES_3_SA"
 
New "Load.BT_2055_M1" bus1="UC4114.3.4" phases=1 conn=delta model=2 kv=0.22 kw = 0.0 pf=0.92 status=variable vmaxpu=1.5 vminpu=0.93 daily="RES_3_SA" 
New "Load.BT_2055_M2" bus1="UC4114.3.4" phases=1 conn=delta model=3 kv=0.22 kw = 0.0 pf=0.92 status=variable vmaxpu=1.5 vminpu=0.93 daily="RES_3_SA"
 
New "Load.BT_1061_M1" bus1="UC16077.3.4" phases=1 conn=delta model=2 kv=0.22 kw = 0.0 pf=0.92 status=variable vmaxpu=1.5 vminpu=0.93 daily="RES_3_SA" 
New "Load.BT_1061_M2" bus1="UC16077.3.4" phases=1 conn=delta model=3 kv=0.22 kw = 0.0 pf=0.92 status=variable vmaxpu=1.5 vminpu=0.93 daily="RES_3_SA"
 
New "Load.BT_7970_M1" bus1="UC15759.2.3.4" phases=2 conn=delta model=2 kv=0.38 kw = 85.41425915444671 pf=0.92 status=variable vmaxpu=1.5 vminpu=0.93 daily="RES_2_SA" 
New "Load.BT_7970_M2" bus1="UC15759.2.3.4" phases=2 conn=delta model=3 kv=0.38 kw = 85.41425915444671 pf=0.92 status=variable vmaxpu=1.5 vminpu=0.93 daily="RES_2_SA"
 
New "Load.BT_7948_M1" bus1="UC15766.1.2.3.4" phases=3 conn=delta model=2 kv=0.38 kw = 313.185616899638 pf=0.92 status=variable vmaxpu=1.5 vminpu=0.93 daily="RES_2_SA" 
New "Load.BT_7948_M2" bus1="UC15766.1.2.3.4" phases=3 conn=delta model=3 kv=0.38 kw = 313.185616899638 pf=0.92 status=variable vmaxpu=1.5 vminpu=0.93 daily="RES_2_SA"
 
New "Load.BT_8518_M1" bus1="UC20077.3.4" phases=1 conn=delta model=2 kv=0.22 kw = 42.707129577223355 pf=0.92 status=variable vmaxpu=1.5 vminpu=0.93 daily="RES_2_SA" 
New "Load.BT_8518_M2" bus1="UC20077.3.4" phases=1 conn=delta model=3 kv=0.22 kw = 42.707129577223355 pf=0.92 status=variable vmaxpu=1.5 vminpu=0.93 daily="RES_2_SA"
 
New "Load.BT_7756_M1" bus1="UC15767.3.4" phases=1 conn=delta model=2 kv=0.22 kw = 32.03034718291752 pf=0.92 status=variable vmaxpu=1.5 vminpu=0.93 daily="RES_2_SA" 
New "Load.BT_7756_M2" bus1="UC15767.3.4" phases=1 conn=delta model=3 kv=0.22 kw = 32.03034718291752 pf=0.92 status=variable vmaxpu=1.5 vminpu=0.93 daily="RES_2_SA"
 
New "Load.BT_7790_M1" bus1="UC15434.3.4" phases=1 conn=delta model=2 kv=0.22 kw = 605.0176690106642 pf=0.92 status=variable vmaxpu=1.5 vminpu=0.93 daily="RES_2_SA" 
New "Load.BT_7790_M2" bus1="UC15434.3.4" phases=1 conn=delta model=3 kv=0.22 kw = 605.0176690106642 pf=0.92 status=variable vmaxpu=1.5 vminpu=0.93 daily="RES_2_SA"
 
New "Load.BT_2544_M1" bus1="UC4853.1.2.4" phases=2 conn=delta model=2 kv=0.38 kw = 348.7748915473241 pf=0.92 status=variable vmaxpu=1.5 vminpu=0.93 daily="RES_2_SA" 
New "Load.BT_2544_M2" bus1="UC4853.1.2.4" phases=2 conn=delta model=3 kv=0.38 kw = 348.7748915473241 pf=0.92 status=variable vmaxpu=1.5 vminpu=0.93 daily="RES_2_SA"
 
New "Load.BT_7743_M1" bus1="UC10804.1.4" phases=1 conn=delta model=2 kv=0.22 kw = 569.7836400499694 pf=0.92 status=variable vmaxpu=1.5 vminpu=0.93 daily="RES_1_SA" 
New "Load.BT_7743_M2" bus1="UC10804.1.4" phases=1 conn=delta model=3 kv=0.22 kw = 569.7836400499694 pf=0.92 status=variable vmaxpu=1.5 vminpu=0.93 daily="RES_1_SA"
 
New "Load.BT_7817_M1" bus1="UC15439.2.4" phases=1 conn=delta model=2 kv=0.22 kw = 780.9457363189136 pf=0.92 status=variable vmaxpu=1.5 vminpu=0.93 daily="RES_8_SA" 
New "Load.BT_7817_M2" bus1="UC15439.2.4" phases=1 conn=delta model=3 kv=0.22 kw = 780.9457363189136 pf=0.92 status=variable vmaxpu=1.5 vminpu=0.93 daily="RES_8_SA"
 
New "Load.BT_2147_M1" bus1="UC20024.3.1.4" phases=2 conn=delta model=2 kv=0.38 kw = 124.56246126690145 pf=0.92 status=variable vmaxpu=1.5 vminpu=0.93 daily="RES_2_SA" 
New "Load.BT_2147_M2" bus1="UC20024.3.1.4" phases=2 conn=delta model=3 kv=0.38 kw = 124.56246126690145 pf=0.92 status=variable vmaxpu=1.5 vminpu=0.93 daily="RES_2_SA"
 
New "Load.BT_7463_M1" bus1="UC4971.2.3.4" phases=2 conn=delta model=2 kv=0.38 kw = 798.4468113858125 pf=0.92 status=variable vmaxpu=1.5 vminpu=0.93 daily="RES_1_SA" 
New "Load.BT_7463_M2" bus1="UC4971.2.3.4" phases=2 conn=delta model=3 kv=0.38 kw = 798.4468113858125 pf=0.92 status=variable vmaxpu=1.5 vminpu=0.93 daily="RES_1_SA"
 
New "Load.BT_1561_M1" bus1="UC14577.2.4" phases=1 conn=delta model=2 kv=0.22 kw = 565.8694668982095 pf=0.92 status=variable vmaxpu=1.5 vminpu=0.93 daily="RES_2_SA" 
New "Load.BT_1561_M2" bus1="UC14577.2.4" phases=1 conn=delta model=3 kv=0.22 kw = 565.8694668982095 pf=0.92 status=variable vmaxpu=1.5 vminpu=0.93 daily="RES_2_SA"
 
New "Load.BT_2266_M1" bus1="UC4027.3.4" phases=1 conn=delta model=2 kv=0.22 kw = 145.79923790067537 pf=0.92 status=variable vmaxpu=1.5 vminpu=0.93 daily="COM_1_SA" 
New "Load.BT_2266_M2" bus1="UC4027.3.4" phases=1 conn=delta model=3 kv=0.22 kw = 145.79923790067537 pf=0.92 status=variable vmaxpu=1.5 vminpu=0.93 daily="COM_1_SA"
 
New "Load.BT_8289_M1" bus1="UC20019.1.4" phases=1 conn=delta model=2 kv=0.22 kw = 441.307005631308 pf=0.92 status=variable vmaxpu=1.5 vminpu=0.93 daily="RES_2_SA" 
New "Load.BT_8289_M2" bus1="UC20019.1.4" phases=1 conn=delta model=3 kv=0.22 kw = 441.307005631308 pf=0.92 status=variable vmaxpu=1.5 vminpu=0.93 daily="RES_2_SA"
 
New "Load.BT_3070_M1" bus1="UC20020.1.2.4" phases=2 conn=delta model=2 kv=0.38 kw = 498.2498450676058 pf=0.92 status=variable vmaxpu=1.5 vminpu=0.93 daily="RES_2_SA" 
New "Load.BT_3070_M2" bus1="UC20020.1.2.4" phases=2 conn=delta model=3 kv=0.38 kw = 498.2498450676058 pf=0.92 status=variable vmaxpu=1.5 vminpu=0.93 daily="RES_2_SA"
 
New "Load.BT_8375_M1" bus1="UC4987.3.1.4" phases=2 conn=delta model=2 kv=0.38 kw = 277.5963422519518 pf=0.92 status=variable vmaxpu=1.5 vminpu=0.93 daily="RES_2_SA" 
New "Load.BT_8375_M2" bus1="UC4987.3.1.4" phases=2 conn=delta model=3 kv=0.38 kw = 277.5963422519518 pf=0.92 status=variable vmaxpu=1.5 vminpu=0.93 daily="RES_2_SA"
 
New "Load.BT_7746_M1" bus1="UC14588.1.4" phases=1 conn=delta model=2 kv=0.22 kw = 153.03388098505036 pf=0.92 status=variable vmaxpu=1.5 vminpu=0.93 daily="RES_2_SA" 
New "Load.BT_7746_M2" bus1="UC14588.1.4" phases=1 conn=delta model=3 kv=0.22 kw = 153.03388098505036 pf=0.92 status=variable vmaxpu=1.5 vminpu=0.93 daily="RES_2_SA"
 
New "Load.BT_7000_M1" bus1="UC15426.1.4" phases=1 conn=delta model=2 kv=0.22 kw = 864.819373938773 pf=0.92 status=variable vmaxpu=1.5 vminpu=0.93 daily="RES_2_SA" 
New "Load.BT_7000_M2" bus1="UC15426.1.4" phases=1 conn=delta model=3 kv=0.22 kw = 864.819373938773 pf=0.92 status=variable vmaxpu=1.5 vminpu=0.93 daily="RES_2_SA"
 
New "Load.BT_874_M1" bus1="UC12653.1.4" phases=1 conn=delta model=2 kv=0.22 kw = 2869.9909475681675 pf=0.92 status=variable vmaxpu=1.5 vminpu=0.93 daily="COM_5_SA" 
New "Load.BT_874_M2" bus1="UC12653.1.4" phases=1 conn=delta model=3 kv=0.22 kw = 2869.9909475681675 pf=0.92 status=variable vmaxpu=1.5 vminpu=0.93 daily="COM_5_SA"
 
New "Load.BT_7960_M1" bus1="UC15423.1.2.3.4" phases=3 conn=delta model=2 kv=0.38 kw = 279.1521993951955 pf=0.92 status=variable vmaxpu=1.5 vminpu=0.93 daily="COM_1_SA" 
New "Load.BT_7960_M2" bus1="UC15423.1.2.3.4" phases=3 conn=delta model=3 kv=0.38 kw = 279.1521993951955 pf=0.92 status=variable vmaxpu=1.5 vminpu=0.93 daily="COM_1_SA"
 
New "Load.BT_61_M1" bus1="UC16056.1.4" phases=1 conn=delta model=2 kv=0.22 kw = 0.0 pf=0.92 status=variable vmaxpu=1.5 vminpu=0.93 daily="RES_7_SA" 
New "Load.BT_61_M2" bus1="UC16056.1.4" phases=1 conn=delta model=3 kv=0.22 kw = 0.0 pf=0.92 status=variable vmaxpu=1.5 vminpu=0.93 daily="RES_7_SA"
 
New "Load.BT_8301_M1" bus1="UC20120.1.2.4" phases=2 conn=delta model=2 kv=0.38 kw = 0.0 pf=0.92 status=variable vmaxpu=1.5 vminpu=0.93 daily="RES_3_SA" 
New "Load.BT_8301_M2" bus1="UC20120.1.2.4" phases=2 conn=delta model=3 kv=0.38 kw = 0.0 pf=0.92 status=variable vmaxpu=1.5 vminpu=0.93 daily="RES_3_SA"
 
New "Load.BT_7633_M1" bus1="UC20123.2.4" phases=1 conn=delta model=2 kv=0.22 kw = 0.0 pf=0.92 status=variable vmaxpu=1.5 vminpu=0.93 daily="RES_3_SA" 
New "Load.BT_7633_M2" bus1="UC20123.2.4" phases=1 conn=delta model=3 kv=0.22 kw = 0.0 pf=0.92 status=variable vmaxpu=1.5 vminpu=0.93 daily="RES_3_SA"
 
New "Load.BT_2683_M1" bus1="UC20122.3.4" phases=1 conn=delta model=2 kv=0.22 kw = 0.0 pf=0.92 status=variable vmaxpu=1.5 vminpu=0.93 daily="RES_7_SA" 
New "Load.BT_2683_M2" bus1="UC20122.3.4" phases=1 conn=delta model=3 kv=0.22 kw = 0.0 pf=0.92 status=variable vmaxpu=1.5 vminpu=0.93 daily="RES_7_SA"
 
New "Load.BT_8675_M1" bus1="UC16051.1.4" phases=1 conn=delta model=2 kv=0.22 kw = 0.0 pf=0.92 status=variable vmaxpu=1.5 vminpu=0.93 daily="COM_5_SA" 
New "Load.BT_8675_M2" bus1="UC16051.1.4" phases=1 conn=delta model=3 kv=0.22 kw = 0.0 pf=0.92 status=variable vmaxpu=1.5 vminpu=0.93 daily="COM_5_SA"
 
New "Load.BT_6508_M1" bus1="UC16063.2.4" phases=1 conn=delta model=2 kv=0.22 kw = 0.0 pf=0.92 status=variable vmaxpu=1.5 vminpu=0.93 daily="RES_3_SA" 
New "Load.BT_6508_M2" bus1="UC16063.2.4" phases=1 conn=delta model=3 kv=0.22 kw = 0.0 pf=0.92 status=variable vmaxpu=1.5 vminpu=0.93 daily="RES_3_SA"
 
New "Load.BT_7819_M1" bus1="UC16066.2.4" phases=1 conn=delta model=2 kv=0.22 kw = 0.0 pf=0.92 status=variable vmaxpu=1.5 vminpu=0.93 daily="RES_7_SA" 
New "Load.BT_7819_M2" bus1="UC16066.2.4" phases=1 conn=delta model=3 kv=0.22 kw = 0.0 pf=0.92 status=variable vmaxpu=1.5 vminpu=0.93 daily="RES_7_SA"
 
New "Load.BT_835_M1" bus1="UC16065.3.4" phases=1 conn=delta model=2 kv=0.22 kw = 0.0 pf=0.92 status=variable vmaxpu=1.5 vminpu=0.93 daily="RES_3_SA" 
New "Load.BT_835_M2" bus1="UC16065.3.4" phases=1 conn=delta model=3 kv=0.22 kw = 0.0 pf=0.92 status=variable vmaxpu=1.5 vminpu=0.93 daily="RES_3_SA"
 
New "Load.BT_8015_M1" bus1="UC20075.1.2.3.4" phases=3 conn=delta model=2 kv=0.38 kw = 149.47495352028173 pf=0.92 status=variable vmaxpu=1.5 vminpu=0.93 daily="RES_2_SA" 
New "Load.BT_8015_M2" bus1="UC20075.1.2.3.4" phases=3 conn=delta model=3 kv=0.38 kw = 149.47495352028173 pf=0.92 status=variable vmaxpu=1.5 vminpu=0.93 daily="RES_2_SA"
 
New "Load.BT_71_M1" bus1="UC2604.2.4" phases=1 conn=delta model=2 kv=0.22 kw = 291.83205211102626 pf=0.92 status=variable vmaxpu=1.5 vminpu=0.93 daily="RES_2_SA" 
New "Load.BT_71_M2" bus1="UC2604.2.4" phases=1 conn=delta model=3 kv=0.22 kw = 291.83205211102626 pf=0.92 status=variable vmaxpu=1.5 vminpu=0.93 daily="RES_2_SA"
 
New "Load.BT_8314_M1" bus1="UC15743.1.2.3.4" phases=3 conn=delta model=2 kv=0.38 kw = 97.7921717626481 pf=0.92 status=variable vmaxpu=1.5 vminpu=0.93 daily="COM_1_SA" 
New "Load.BT_8314_M2" bus1="UC15743.1.2.3.4" phases=3 conn=delta model=3 kv=0.38 kw = 97.7921717626481 pf=0.92 status=variable vmaxpu=1.5 vminpu=0.93 daily="COM_1_SA"
 
New "Load.BT_814_M1" bus1="UC20076.1.4" phases=1 conn=delta model=2 kv=0.22 kw = 138.7981711259759 pf=0.92 status=variable vmaxpu=1.5 vminpu=0.93 daily="RES_2_SA" 
New "Load.BT_814_M2" bus1="UC20076.1.4" phases=1 conn=delta model=3 kv=0.22 kw = 138.7981711259759 pf=0.92 status=variable vmaxpu=1.5 vminpu=0.93 daily="RES_2_SA"
 
New "Load.BT_8070_M1" bus1="UC20074.2.3.4" phases=2 conn=delta model=2 kv=0.38 kw = 758.0515499957146 pf=0.92 status=variable vmaxpu=1.5 vminpu=0.93 daily="RES_2_SA" 
New "Load.BT_8070_M2" bus1="UC20074.2.3.4" phases=2 conn=delta model=3 kv=0.38 kw = 758.0515499957146 pf=0.92 status=variable vmaxpu=1.5 vminpu=0.93 daily="RES_2_SA"
 
New "Load.BT_2848_M1" bus1="UC6699.2.4" phases=1 conn=delta model=2 kv=0.22 kw = 1039.206819712435 pf=0.92 status=variable vmaxpu=1.5 vminpu=0.93 daily="RES_2_SA" 
New "Load.BT_2848_M2" bus1="UC6699.2.4" phases=1 conn=delta model=3 kv=0.22 kw = 1039.206819712435 pf=0.92 status=variable vmaxpu=1.5 vminpu=0.93 daily="RES_2_SA"
 
New "Load.BT_1090_M1" bus1="UC15410.1.2.3.4" phases=3 conn=delta model=2 kv=0.38 kw = 273.8180809354147 pf=0.92 status=variable vmaxpu=1.5 vminpu=0.93 daily="COM_1_SA" 
New "Load.BT_1090_M2" bus1="UC15410.1.2.3.4" phases=3 conn=delta model=3 kv=0.38 kw = 273.8180809354147 pf=0.92 status=variable vmaxpu=1.5 vminpu=0.93 daily="COM_1_SA"
 
New "Load.BT_1090_M1" bus1="UC15410.3.4" phases=1 conn=delta model=2 kv=0.22 kw = 3512.4563992961275 pf=0.92 status=variable vmaxpu=1.5 vminpu=0.93 daily="RES_8_SA" 
New "Load.BT_1090_M2" bus1="UC15410.3.4" phases=1 conn=delta model=3 kv=0.22 kw = 3512.4563992961275 pf=0.92 status=variable vmaxpu=1.5 vminpu=0.93 daily="RES_8_SA"
 
New "Load.BT_7839_M1" bus1="UC15414.1.2.3.4" phases=3 conn=delta model=2 kv=0.38 kw = 15099.111320152868 pf=0.92 status=variable vmaxpu=1.5 vminpu=0.93 daily="COM_1_SA" 
New "Load.BT_7839_M2" bus1="UC15414.1.2.3.4" phases=3 conn=delta model=3 kv=0.38 kw = 15099.111320152868 pf=0.92 status=variable vmaxpu=1.5 vminpu=0.93 daily="COM_1_SA"
 
New "Load.BT_1339_M1" bus1="UC15420.2.3.4" phases=2 conn=delta model=2 kv=0.38 kw = 419.9534408426963 pf=0.92 status=variable vmaxpu=1.5 vminpu=0.93 daily="RES_2_SA" 
New "Load.BT_1339_M2" bus1="UC15420.2.3.4" phases=2 conn=delta model=3 kv=0.38 kw = 419.9534408426963 pf=0.92 status=variable vmaxpu=1.5 vminpu=0.93 daily="RES_2_SA"
 
New "Load.BT_7850_M1" bus1="UC13997.1.4" phases=1 conn=delta model=2 kv=0.22 kw = 760.8724047948356 pf=0.92 status=variable vmaxpu=1.5 vminpu=0.93 daily="RES_13_SA" 
New "Load.BT_7850_M2" bus1="UC13997.1.4" phases=1 conn=delta model=3 kv=0.22 kw = 760.8724047948356 pf=0.92 status=variable vmaxpu=1.5 vminpu=0.93 daily="RES_13_SA"
 
New "Load.BT_2647_M1" bus1="UC4659.1.2.3.4" phases=3 conn=delta model=2 kv=0.38 kw = 0.0 pf=0.92 status=variable vmaxpu=1.5 vminpu=0.93 daily="RES_3_SA" 
New "Load.BT_2647_M2" bus1="UC4659.1.2.3.4" phases=3 conn=delta model=3 kv=0.38 kw = 0.0 pf=0.92 status=variable vmaxpu=1.5 vminpu=0.93 daily="RES_3_SA"
 
New "Load.BT_3000_M1" bus1="UC3833.2.4" phases=1 conn=delta model=2 kv=0.22 kw = 0.0 pf=0.92 status=variable vmaxpu=1.5 vminpu=0.93 daily="COM_5_SA" 
New "Load.BT_3000_M2" bus1="UC3833.2.4" phases=1 conn=delta model=3 kv=0.22 kw = 0.0 pf=0.92 status=variable vmaxpu=1.5 vminpu=0.93 daily="COM_5_SA"
 
New "Load.BT_6968_M1" bus1="UC16049.1.4" phases=1 conn=delta model=2 kv=0.22 kw = 0.0 pf=0.92 status=variable vmaxpu=1.5 vminpu=0.93 daily="RES_7_SA" 
New "Load.BT_6968_M2" bus1="UC16049.1.4" phases=1 conn=delta model=3 kv=0.22 kw = 0.0 pf=0.92 status=variable vmaxpu=1.5 vminpu=0.93 daily="RES_7_SA"
 
New "Load.BT_8565_M1" bus1="UC20121.1.2.3.4" phases=3 conn=delta model=2 kv=0.38 kw = 0.0 pf=0.92 status=variable vmaxpu=1.5 vminpu=0.93 daily="RES_3_SA" 
New "Load.BT_8565_M2" bus1="UC20121.1.2.3.4" phases=3 conn=delta model=3 kv=0.38 kw = 0.0 pf=0.92 status=variable vmaxpu=1.5 vminpu=0.93 daily="RES_3_SA"
 
New "Load.BT_2851_M1" bus1="UC1952.2.4" phases=1 conn=delta model=2 kv=0.22 kw = 0.0 pf=0.92 status=variable vmaxpu=1.5 vminpu=0.93 daily="RES_3_SA" 
New "Load.BT_2851_M2" bus1="UC1952.2.4" phases=1 conn=delta model=3 kv=0.22 kw = 0.0 pf=0.92 status=variable vmaxpu=1.5 vminpu=0.93 daily="RES_3_SA"
 
New "Load.BT_1108_M1" bus1="UC16052.3.4" phases=1 conn=delta model=2 kv=0.22 kw = 0.0 pf=0.92 status=variable vmaxpu=1.5 vminpu=0.93 daily="RES_7_SA" 
New "Load.BT_1108_M2" bus1="UC16052.3.4" phases=1 conn=delta model=3 kv=0.22 kw = 0.0 pf=0.92 status=variable vmaxpu=1.5 vminpu=0.93 daily="RES_7_SA"
 
New "Load.BT_61_M1" bus1="UC16056.2.4" phases=1 conn=delta model=2 kv=0.22 kw = 0.0 pf=0.92 status=variable vmaxpu=1.5 vminpu=0.93 daily="RES_7_SA" 
New "Load.BT_61_M2" bus1="UC16056.2.4" phases=1 conn=delta model=3 kv=0.22 kw = 0.0 pf=0.92 status=variable vmaxpu=1.5 vminpu=0.93 daily="RES_7_SA"
 
New "Load.BT_7277_M1" bus1="UC16022.1.2.3.4" phases=3 conn=delta model=2 kv=0.38 kw = 0.0 pf=0.92 status=variable vmaxpu=1.5 vminpu=0.93 daily="RES_7_SA" 
New "Load.BT_7277_M2" bus1="UC16022.1.2.3.4" phases=3 conn=delta model=3 kv=0.38 kw = 0.0 pf=0.92 status=variable vmaxpu=1.5 vminpu=0.93 daily="RES_7_SA"
 
New "Load.BT_7621_M1" bus1="UC20113.1.4" phases=1 conn=delta model=2 kv=0.22 kw = 0.0 pf=0.92 status=variable vmaxpu=1.5 vminpu=0.93 daily="RES_3_SA" 
New "Load.BT_7621_M2" bus1="UC20113.1.4" phases=1 conn=delta model=3 kv=0.22 kw = 0.0 pf=0.92 status=variable vmaxpu=1.5 vminpu=0.93 daily="RES_3_SA"
 
New "Load.BT_7621_M1" bus1="UC20113.2.4" phases=1 conn=delta model=2 kv=0.22 kw = 0.0 pf=0.92 status=variable vmaxpu=1.5 vminpu=0.93 daily="RES_3_SA" 
New "Load.BT_7621_M2" bus1="UC20113.2.4" phases=1 conn=delta model=3 kv=0.22 kw = 0.0 pf=0.92 status=variable vmaxpu=1.5 vminpu=0.93 daily="RES_3_SA"
 
New "Load.BT_8077_M1" bus1="UC4766.2.3.4" phases=2 conn=delta model=2 kv=0.38 kw = 0.0 pf=0.92 status=variable vmaxpu=1.5 vminpu=0.93 daily="RES_3_SA" 
New "Load.BT_8077_M2" bus1="UC4766.2.3.4" phases=2 conn=delta model=3 kv=0.38 kw = 0.0 pf=0.92 status=variable vmaxpu=1.5 vminpu=0.93 daily="RES_3_SA"
 
New "Load.BT_8518_M1" bus1="UC20077.3.4" phases=1 conn=delta model=2 kv=0.22 kw = 0.0 pf=0.92 status=variable vmaxpu=1.5 vminpu=0.93 daily="RES_3_SA" 
New "Load.BT_8518_M2" bus1="UC20077.3.4" phases=1 conn=delta model=3 kv=0.22 kw = 0.0 pf=0.92 status=variable vmaxpu=1.5 vminpu=0.93 daily="RES_3_SA"
 
New "Load.BT_8518_M1" bus1="UC20077.2.4" phases=1 conn=delta model=2 kv=0.22 kw = 0.0 pf=0.92 status=variable vmaxpu=1.5 vminpu=0.93 daily="RES_7_SA" 
New "Load.BT_8518_M2" bus1="UC20077.2.4" phases=1 conn=delta model=3 kv=0.22 kw = 0.0 pf=0.92 status=variable vmaxpu=1.5 vminpu=0.93 daily="RES_7_SA"
 
New "Load.BT_8518_M1" bus1="UC20077.1.4" phases=1 conn=delta model=2 kv=0.22 kw = 0.0 pf=0.92 status=variable vmaxpu=1.5 vminpu=0.93 daily="RES_3_SA" 
New "Load.BT_8518_M2" bus1="UC20077.1.4" phases=1 conn=delta model=3 kv=0.22 kw = 0.0 pf=0.92 status=variable vmaxpu=1.5 vminpu=0.93 daily="RES_3_SA"
 
New "Load.BT_8018_M1" bus1="UC20072.1.2.3.4" phases=3 conn=delta model=2 kv=0.38 kw = 135.2392436612073 pf=0.92 status=variable vmaxpu=1.5 vminpu=0.93 daily="RES_2_SA" 
New "Load.BT_8018_M2" bus1="UC20072.1.2.3.4" phases=3 conn=delta model=3 kv=0.38 kw = 135.2392436612073 pf=0.92 status=variable vmaxpu=1.5 vminpu=0.93 daily="RES_2_SA"
 
New "Load.BT_2811_M1" bus1="UC4902.1.2.4" phases=2 conn=delta model=2 kv=0.38 kw = 28.471419718148905 pf=0.92 status=variable vmaxpu=1.5 vminpu=0.93 daily="RES_2_SA" 
New "Load.BT_2811_M2" bus1="UC4902.1.2.4" phases=2 conn=delta model=3 kv=0.38 kw = 28.471419718148905 pf=0.92 status=variable vmaxpu=1.5 vminpu=0.93 daily="RES_2_SA"
 
New "Load.BT_945_M1" bus1="UC5720.3.4" phases=1 conn=delta model=2 kv=0.22 kw = 238.44814013949707 pf=0.92 status=variable vmaxpu=1.5 vminpu=0.93 daily="RES_2_SA" 
New "Load.BT_945_M2" bus1="UC5720.3.4" phases=1 conn=delta model=3 kv=0.22 kw = 238.44814013949707 pf=0.92 status=variable vmaxpu=1.5 vminpu=0.93 daily="RES_2_SA"
 
New "Load.BT_8517_M1" bus1="UC20014.1.2.3.4" phases=3 conn=delta model=2 kv=0.38 kw = 665.5194359117306 pf=0.92 status=variable vmaxpu=1.5 vminpu=0.93 daily="RES_2_SA" 
New "Load.BT_8517_M2" bus1="UC20014.1.2.3.4" phases=3 conn=delta model=3 kv=0.38 kw = 665.5194359117306 pf=0.92 status=variable vmaxpu=1.5 vminpu=0.93 daily="RES_2_SA"
 
New "Load.BT_1925_M1" bus1="UC3106.1.4" phases=1 conn=delta model=2 kv=0.22 kw = 689.7380905868051 pf=0.92 status=variable vmaxpu=1.5 vminpu=0.93 daily="RES_1_SA" 
New "Load.BT_1925_M2" bus1="UC3106.1.4" phases=1 conn=delta model=3 kv=0.22 kw = 689.7380905868051 pf=0.92 status=variable vmaxpu=1.5 vminpu=0.93 daily="RES_1_SA"
 
New "Load.BT_663_M1" bus1="UC14776.1.2.4" phases=2 conn=delta model=2 kv=0.38 kw = 602.7553859552311 pf=0.92 status=variable vmaxpu=1.5 vminpu=0.93 daily="COM_1_SA" 
New "Load.BT_663_M2" bus1="UC14776.1.2.4" phases=2 conn=delta model=3 kv=0.38 kw = 602.7553859552311 pf=0.92 status=variable vmaxpu=1.5 vminpu=0.93 daily="COM_1_SA"
 
New "Load.BT_663_M1" bus1="UC14776.1.4" phases=1 conn=delta model=2 kv=0.22 kw = 509.80641478155167 pf=0.92 status=variable vmaxpu=1.5 vminpu=0.93 daily="RES_1_SA" 
New "Load.BT_663_M2" bus1="UC14776.1.4" phases=1 conn=delta model=3 kv=0.22 kw = 509.80641478155167 pf=0.92 status=variable vmaxpu=1.5 vminpu=0.93 daily="RES_1_SA"
 
New "Load.BT_459_M1" bus1="UC9463.3.4" phases=1 conn=delta model=2 kv=0.22 kw = 530.2801922505233 pf=0.92 status=variable vmaxpu=1.5 vminpu=0.93 daily="RES_2_SA" 
New "Load.BT_459_M2" bus1="UC9463.3.4" phases=1 conn=delta model=3 kv=0.22 kw = 530.2801922505233 pf=0.92 status=variable vmaxpu=1.5 vminpu=0.93 daily="RES_2_SA"
 
New "Load.BT_748_M1" bus1="UC3917.3.4" phases=1 conn=delta model=2 kv=0.22 kw = 679.7551457708051 pf=0.92 status=variable vmaxpu=1.5 vminpu=0.93 daily="RES_2_SA" 
New "Load.BT_748_M2" bus1="UC3917.3.4" phases=1 conn=delta model=3 kv=0.22 kw = 679.7551457708051 pf=0.92 status=variable vmaxpu=1.5 vminpu=0.93 daily="RES_2_SA"
 
New "Load.BT_7620_M1" bus1="UC20017.1.2.3.4" phases=3 conn=delta model=2 kv=0.38 kw = 1064.95967399926 pf=0.92 status=variable vmaxpu=1.5 vminpu=0.93 daily="RES_10_SA" 
New "Load.BT_7620_M2" bus1="UC20017.1.2.3.4" phases=3 conn=delta model=3 kv=0.38 kw = 1064.95967399926 pf=0.92 status=variable vmaxpu=1.5 vminpu=0.93 daily="RES_10_SA"
 
New "Load.BT_2952_M1" bus1="UC20157.3.4" phases=1 conn=delta model=2 kv=0.22 kw = 0.0 pf=0.92 status=variable vmaxpu=1.5 vminpu=0.93 daily="RES_7_SA" 
New "Load.BT_2952_M2" bus1="UC20157.3.4" phases=1 conn=delta model=3 kv=0.22 kw = 0.0 pf=0.92 status=variable vmaxpu=1.5 vminpu=0.93 daily="RES_7_SA"
 
New "Load.BT_1937_M1" bus1="UC20159.1.4" phases=1 conn=delta model=2 kv=0.22 kw = 0.0 pf=0.92 status=variable vmaxpu=1.5 vminpu=0.93 daily="RES_7_SA" 
New "Load.BT_1937_M2" bus1="UC20159.1.4" phases=1 conn=delta model=3 kv=0.22 kw = 0.0 pf=0.92 status=variable vmaxpu=1.5 vminpu=0.93 daily="RES_7_SA"
 
New "Load.BT_7292_M1" bus1="UC20158.2.3.4" phases=2 conn=delta model=2 kv=0.38 kw = 0.0 pf=0.92 status=variable vmaxpu=1.5 vminpu=0.93 daily="RES_7_SA" 
New "Load.BT_7292_M2" bus1="UC20158.2.3.4" phases=2 conn=delta model=3 kv=0.38 kw = 0.0 pf=0.92 status=variable vmaxpu=1.5 vminpu=0.93 daily="RES_7_SA"
 
New "Load.BT_8649_M1" bus1="UC16131.1.2.3.4" phases=3 conn=delta model=2 kv=0.38 kw = 0.0 pf=0.92 status=variable vmaxpu=1.5 vminpu=0.93 daily="COM_5_SA" 
New "Load.BT_8649_M2" bus1="UC16131.1.2.3.4" phases=3 conn=delta model=3 kv=0.38 kw = 0.0 pf=0.92 status=variable vmaxpu=1.5 vminpu=0.93 daily="COM_5_SA"
 
New "Load.BT_7507_M1" bus1="UC16308.2.4" phases=1 conn=delta model=2 kv=0.22 kw = 0.0 pf=0.92 status=variable vmaxpu=1.5 vminpu=0.93 daily="RES_7_SA" 
New "Load.BT_7507_M2" bus1="UC16308.2.4" phases=1 conn=delta model=3 kv=0.22 kw = 0.0 pf=0.92 status=variable vmaxpu=1.5 vminpu=0.93 daily="RES_7_SA"
 
New "Load.BT_2275_M1" bus1="UC20160.2.4" phases=1 conn=delta model=2 kv=0.22 kw = 0.0 pf=0.92 status=variable vmaxpu=1.5 vminpu=0.93 daily="RES_7_SA" 
New "Load.BT_2275_M2" bus1="UC20160.2.4" phases=1 conn=delta model=3 kv=0.22 kw = 0.0 pf=0.92 status=variable vmaxpu=1.5 vminpu=0.93 daily="RES_7_SA"
 
New "Load.BT_1838_M1" bus1="UC11113.3.4" phases=1 conn=delta model=2 kv=0.22 kw = 0.0 pf=0.92 status=variable vmaxpu=1.5 vminpu=0.93 daily="COM_5_SA" 
New "Load.BT_1838_M2" bus1="UC11113.3.4" phases=1 conn=delta model=3 kv=0.22 kw = 0.0 pf=0.92 status=variable vmaxpu=1.5 vminpu=0.93 daily="COM_5_SA"
 
New "Load.BT_2861_M1" bus1="UC1579.1.4" phases=1 conn=delta model=2 kv=0.22 kw = 0.0 pf=0.92 status=variable vmaxpu=1.5 vminpu=0.93 daily="RES_3_SA" 
New "Load.BT_2861_M2" bus1="UC1579.1.4" phases=1 conn=delta model=3 kv=0.22 kw = 0.0 pf=0.92 status=variable vmaxpu=1.5 vminpu=0.93 daily="RES_3_SA"
 
New "Load.BT_7961_M1" bus1="UC15997.2.3.4" phases=2 conn=delta model=2 kv=0.38 kw = 0.0 pf=0.92 status=variable vmaxpu=1.5 vminpu=0.93 daily="RES_3_SA" 
New "Load.BT_7961_M2" bus1="UC15997.2.3.4" phases=2 conn=delta model=3 kv=0.38 kw = 0.0 pf=0.92 status=variable vmaxpu=1.5 vminpu=0.93 daily="RES_3_SA"
 
New "Load.BT_2904_M1" bus1="UC20108.3.1.4" phases=2 conn=delta model=2 kv=0.38 kw = 0.0 pf=0.92 status=variable vmaxpu=1.5 vminpu=0.93 daily="RES_3_SA" 
New "Load.BT_2904_M2" bus1="UC20108.3.1.4" phases=2 conn=delta model=3 kv=0.38 kw = 0.0 pf=0.92 status=variable vmaxpu=1.5 vminpu=0.93 daily="RES_3_SA"
 
New "Load.BT_8511_M1" bus1="UC20109.1.2.3.4" phases=3 conn=delta model=2 kv=0.38 kw = 0.0 pf=0.92 status=variable vmaxpu=1.5 vminpu=0.93 daily="RES_3_SA" 
New "Load.BT_8511_M2" bus1="UC20109.1.2.3.4" phases=3 conn=delta model=3 kv=0.38 kw = 0.0 pf=0.92 status=variable vmaxpu=1.5 vminpu=0.93 daily="RES_3_SA"
 
New "Load.BT_463_M1" bus1="UC16004.3.4" phases=1 conn=delta model=2 kv=0.22 kw = 0.0 pf=0.92 status=variable vmaxpu=1.5 vminpu=0.93 daily="RES_7_SA" 
New "Load.BT_463_M2" bus1="UC16004.3.4" phases=1 conn=delta model=3 kv=0.22 kw = 0.0 pf=0.92 status=variable vmaxpu=1.5 vminpu=0.93 daily="RES_7_SA"
 
New "Load.BT_6668_M1" bus1="UC9379.1.4" phases=1 conn=delta model=2 kv=0.22 kw = 306.0677619701007 pf=0.92 status=variable vmaxpu=1.5 vminpu=0.93 daily="RES_2_SA" 
New "Load.BT_6668_M2" bus1="UC9379.1.4" phases=1 conn=delta model=3 kv=0.22 kw = 306.0677619701007 pf=0.92 status=variable vmaxpu=1.5 vminpu=0.93 daily="RES_2_SA"
 
New "Load.BT_2037_M1" bus1="UC4021.3.4" phases=1 conn=delta model=2 kv=0.22 kw = 459.101642955151 pf=0.92 status=variable vmaxpu=1.5 vminpu=0.93 daily="RES_2_SA" 
New "Load.BT_2037_M2" bus1="UC4021.3.4" phases=1 conn=delta model=3 kv=0.22 kw = 459.101642955151 pf=0.92 status=variable vmaxpu=1.5 vminpu=0.93 daily="RES_2_SA"
 
New "Load.BT_1224_M1" bus1="UC1788.1.4" phases=1 conn=delta model=2 kv=0.22 kw = 202.85886549181095 pf=0.92 status=variable vmaxpu=1.5 vminpu=0.93 daily="RES_2_SA" 
New "Load.BT_1224_M2" bus1="UC1788.1.4" phases=1 conn=delta model=3 kv=0.22 kw = 202.85886549181095 pf=0.92 status=variable vmaxpu=1.5 vminpu=0.93 daily="RES_2_SA"
 
New "Load.BT_969_M1" bus1="UC15681.1.4" phases=1 conn=delta model=2 kv=0.22 kw = 736.6979852071028 pf=0.92 status=variable vmaxpu=1.5 vminpu=0.93 daily="RES_2_SA" 
New "Load.BT_969_M2" bus1="UC15681.1.4" phases=1 conn=delta model=3 kv=0.22 kw = 736.6979852071028 pf=0.92 status=variable vmaxpu=1.5 vminpu=0.93 daily="RES_2_SA"
 
New "Load.BT_969_M1" bus1="UC15681.1.4" phases=1 conn=delta model=2 kv=0.22 kw = 886.1729387273847 pf=0.92 status=variable vmaxpu=1.5 vminpu=0.93 daily="RES_2_SA" 
New "Load.BT_969_M2" bus1="UC15681.1.4" phases=1 conn=delta model=3 kv=0.22 kw = 886.1729387273847 pf=0.92 status=variable vmaxpu=1.5 vminpu=0.93 daily="RES_2_SA"
 
New "Load.BT_8360_M1" bus1="UC15017.1.2.3.4" phases=3 conn=delta model=2 kv=0.38 kw = 110.65839169703929 pf=0.92 status=variable vmaxpu=1.5 vminpu=0.93 daily="IND_13_SA" 
...